T42/data/state_estimation/PT_Dx_01_2040_W_Bd/PT_Dx_01_2040_W_Bd_t1.csv
bus,vm_pu,va_degree,p_mw,q_mvar
1,0.968936,-0.085881,-11.560537,-4.568961
2,1.000878,-0.000051,25.091517,9.457541
3,0.969200,-0.086078,0.000023,0.000055
4,0.968709,-0.086821,-0.000039,0.000016
5,0.969043,-0.085948,0.000028,-0.000030
6,0.968308,-0.086257,-0.006302,-0.003141
7,0.967258,-0.087164,-0.057538,-0.029552
8,0.968287,-0.086386,-0.007991,-0.004079
9,0.967478,-0.087957,-0.661150,-0.338775
10,0.966570,-0.086782,-3.085926,-1.581062
11,0.967709,-0.085829,-0.563201,-0.288483
12,0.965532,-0.089589,-0.001581,-0.000702
13,0.967150,-0.087522,-0.025311,-0.010127
14,0.968077,-0.086719,-1.591125,-0.750586
15,0.965019,-0.089070,-0.013095,-0.006734
16,0.968576,-0.087214,-0.018552,-0.009513
17,0.967898,-0.087258,-0.003007,-0.001605
18,0.967759,-0.087330,-0.013677,-0.007011
19,0.965224,-0.087882,-0.045027,-0.022985
20,0.968248,-0.087245,-1.128161,-0.513353
21,0.964716,-0.088431,-0.000027,-0.000073
22,0.966684,-0.087154,-0.006734,-0.002589
23,0.965833,-0.088012,-0.063722,-0.032774
24,0.965177,-0.088793,-0.081587,-0.032246
25,0.966453,-0.087979,-0.008746,-0.003448
26,0.967438,-0.086502,-0.022575,-0.011490
27,0.967780,-0.087116,-0.004567,-0.002318
28,0.965102,-0.088394,-0.065801,-0.033769
29,0.968593,-0.086436,-0.019144,-0.009750
30,0.966808,-0.087225,-0.125953,-0.064535
31,0.967702,-0.087516,-0.013518,-0.006866
32,0.968758,-0.086228,-0.094702,-0.048549
33,0.967414,-0.087232,-0.538564,-0.211236
34,0.965016,-0.088567,-0.001948,-0.001035
35,0.965737,-0.088048,-0.009790,-0.004932
36,0.967627,-0.086365,-0.008736,-0.004426
37,0.968023,-0.086767,-0.006070,-0.002448
38,0.964609,-0.089974,-0.063047,-0.032189
39,0.968054,-0.087238,-0.107786,-0.055273
40,0.965832,-0.088151,-0.015840,-0.006246
41,0.966323,-0.089230,-0.018591,-0.007311
42,0.965386,-0.088130,-0.006200,-0.003154
43,0.965923,-0.088313,-0.157848,-0.080842
44,0.965740,-0.089073,-0.025932,-0.013240
45,0.964968,-0.088340,-0.002121,-0.000814
46,0.968133,-0.088159,-0.080822,-0.041453
47,0.965470,-0.088049,-0.369045,-0.189050
48,0.967080,-0.086652,-0.000009,-0.000041
49,0.967172,-0.087059,-0.040248,-0.020614
50,0.967993,-0.086309,-0.004284,-0.002259
51,0.969018,-0.086944,-0.014663,-0.005814
52,0.967172,-0.087188,-0.009218,-0.004754
53,0.964969,-0.088399,-0.213107,-0.109116
54,0.968125,-0.087161,-0.003943,-0.001568
55,0.968689,-0.086203,-0.028178,-0.014357
56,0.967065,-0.086982,-0.015528,-0.007927
57,0.967440,-0.085616,-0.007394,-0.003810
58,0.965284,-0.088716,-0.010507,-0.005299
59,0.964627,-0.089560,-0.029506,-0.011673
60,0.964709,-0.089147,-0.023355,-0.009182
61,0.968061,-0.087448,-0.846041,-0.368826
62,0.968742,-0.086830,-0.001631,-0.000862
63,0.964818,-0.089238,-0.000859,-0.000355
64,0.967696,-0.086851,-0.219806,-0.112626
65,0.967475,-0.085843,-0.564245,-0.224577
66,0.967921,-0.086756,-0.117364,-0.060159
67,0.968420,-0.086086,-0.026867,-0.013773
68,0.965891,-0.088942,-0.114160,-0.058472
69,0.967391,-0.087314,-0.021939,-0.008481
70,0.967753,-0.086407,-0.056042,-0.028731
71,0.965960,-0.089320,-0.005307,-0.002769
72,0.964622,-0.088967,-0.010186,-0.005346
73,0.965529,-0.089192,-0.014449,-0.005790
74,0.964294,-0.088969,-0.008808,-0.004527
75,0.964580,-0.087748,-0.108237,-0.055415
76,0.967703,-0.086771,-0.007545,-0.003893
77,0.968051,-0.086188,-0.006789,-0.003455
78,0.968415,-0.086202,-0.024015,-0.012240
79,0.969214,-0.086918,-0.128101,-0.065575
80,0.966226,-0.088855,0.000072,0.000010
81,0.965006,-0.089338,-0.001999,-0.001095
82,0.968462,-0.087599,-0.006294,-0.003191
83,0.967864,-0.086971,-0.055141,-0.028251
84,0.967521,-0.086875,-0.006780,-0.003504
85,0.965265,-0.087863,-0.000154,0.000063
86,0.968701,-0.085394,-0.056870,-0.022427
87,0.967192,-0.087338,-0.015486,-0.007949
88,0.968768,-0.086432,-0.023628,-0.012108
89,0.967388,-0.085948,-0.015171,-0.007879
90,0.966631,-0.086213,-0.016660,-0.008478
91,0.964836,-0.088716,-0.032287,-0.016614
92,0.964385,-0.088912,-0.001150,-0.000594
93,0.967256,-0.086664,-0.032787,-0.016765
94,0.965459,-0.090091,-0.018957,-0.009791
95,0.969357,-0.087822,-0.131437,-0.067308
96,0.965379,-0.089172,-0.016526,-0.006507
97,0.964143,-0.089929,-0.023036,-0.011829
98,0.965619,-0.087620,-0.058741,-0.023173
99,0.967924,-0.086435,-0.308252,-0.093298
100,0.967364,-0.087308,-0.025321,-0.012892
101,0.967485,-0.087081,-0.057948,-0.022785
102,0.968604,-0.086543,-0.488637,-0.185762
103,0.967698,-0.086941,-0.055531,-0.021992
104,0.964966,-0.089136,-0.146791,-0.057945
105,0.967984,-0.085997,-0.002541,-0.001285
106,0.968076,-0.086681,0.000013,0.000018
107,0.968471,-0.087656,-0.000039,0.000013
108,0.967484,-0.087341,0.000119,-0.000002
109,0.968609,-0.086339,0.000023,0.000027
110,0.965237,-0.089374,0.000013,0.000036
111,0.965368,-0.088608,0.000041,-0.000009
112,0.967063,-0.086006,0.000052,-0.000086
113,0.968749,-0.087173,0.000034,0.000036
114,0.965826,-0.089651,-0.000038,0.000058
115,0.964975,-0.089109,0.000005,0.000028
116,0.967440,-0.086339,-0.000027,0.000057
117,0.965797,-0.088647,-0.000033,-0.000015
118,0.968087,-0.086041,0.000000,-0.000012
119,0.967319,-0.087097,0.000013,0.000055
120,0.967878,-0.086518,0.000060,-0.000016
121,0.968079,-0.086987,0.000065,0.000022
122,0.967247,-0.086630,0.000031,0.000037
123,0.966940,-0.086504,0.000010,-0.000006
124,0.968464,-0.086592,0.000026,0.000065
125,0.967799,-0.087819,0.000038,0.000117
126,0.964470,-0.088830,0.000052,-0.000021
127,0.967041,-0.085657,0.000045,-0.000053
128,0.965225,-0.087409,-0.000041,0.000119
129,0.964888,-0.088909,-0.000014,-0.000030
130,0.965076,-0.087472,-0.000035,-0.000022
131,0.969650,-0.086184,0.000101,-0.000007
132,0.964623,-0.087989,0.000070,-0.000094
133,0.966878,-0.086815,0.000041,0.000090
134,0.968431,-0.086558,0.000050,-0.000022
135,0.965732,-0.088868,0.000059,-0.000036
136,0.965764,-0.089797,-0.000011,0.000004
137,0.964722,-0.088675,0.000043,0.000096
138,0.965355,-0.088814,0.000006,-0.000024
139,0.966166,-0.089534,-0.000052,-0.000049
140,0.967276,-0.087449,-0.000008,-0.000000
141,0.964806,-0.089123,-0.000022,0.000086
142,0.964510,-0.088595,-0.000015,0.000013
143,0.965941,-0.089206,0.000013,-0.000004
144,0.968426,-0.086291,-0.000009,-0.000046
145,0.968837,-0.086671,-0.000002,-0.000024
146,0.966325,-0.086323,-0.000044,-0.000088
147,0.967078,-0.087821,-0.000030,-0.000010
148,0.966745,-0.086799,-0.000074,-0.000097
149,0.964095,-0.088992,0.000011,-0.000036
150,0.965510,-0.089146,0.000020,-0.000015
151,0.969038,-0.086364,0.000098,-0.000061
152,0.968231,-0.085968,-0.000003,-0.000079
153,0.967941,-0.086870,0.000054,0.000012
154,0.967758,-0.087505,0.000009,0.000019
155,0.965344,-0.088117,-0.000080,-0.000015
156,0.967569,-0.087640,0.000001,-0.000072
157,0.969488,-0.086845,-0.000036,0.000033
158,0.968473,-0.087425,0.000025,-0.000029
159,0.965126,-0.088545,-0.000068,-0.000096
160,0.968959,-0.085850,-0.000030,-0.000106
161,0.967348,-0.087179,0.000024,0.000013
162,0.965645,-0.089459,0.000013,-0.000015
163,0.969263,-0.087074,-0.000048,0.000022
164,0.968096,-0.086691,-0.000036,0.000002
165,0.968516,-0.086764,-0.000023,-0.000012
166,0.969323,-0.086553,0.000014,0.000021
167,0.965006,-0.089421,-0.000013,-0.000025
168,0.967808,-0.086475,-0.000014,0.000061
169,0.968320,-0.086209,0.000027,-0.000003
170,0.967197,-0.087116,0.000025,-0.000059
171,0.964995,-0.089382,0.000036,-0.000011
172,0.964759,-0.089209,-0.000022,0.000096
173,0.967205,-0.087251,0.000019,-0.000032
174,0.965217,-0.088945,0.000009,0.000043
175,0.966047,-0.089562,-0.000043,0.000124
176,0.967901,-0.086766,0.000057,0.000024
177,0.965201,-0.087884,-0.000073,-0.000023
178,0.965111,-0.088898,-0.000050,-0.000053
179,0.968816,-0.086705,0.000051,-0.000028
180,0.969096,-0.086415,-0.000047,0.000008
181,0.965073,-0.088948,-0.000097,-0.000063
182,0.964891,-0.088738,0.000007,-0.000006
183,0.968196,-0.086726,0.000078,0.000033
184,0.967515,-0.085705,-0.000062,0.000081
185,0.967351,-0.086881,0.000005,0.000017
186,0.965849,-0.089039,-0.000005,-0.000030
187,0.967804,-0.087095,-0.000032,0.000032
188,0.965490,-0.089624,-0.000087,0.000004
189,0.969099,-0.086104,-0.000065,0.000039
190,0.965182,-0.088190,0.000062,0.000045
191,0.968683,-0.087571,-0.000031,0.000029
